  
       XFOIL         Version 6.99
  
 Calculated polar for: NACA 0012                                       
  
 1 1 Reynolds number fixed          Mach number fixed         
  
 xtrf =   1.000 (top)        1.000 (bottom)  
 Mach =   0.000     Re =    10.000 e 6     Ncrit =   9.000  9.000
  
   alpha    CL        CD       CDp       CM     Top_Xtr  Bot_Xtr  Top_Itr  Bot_Itr
  ------ -------- --------- --------- -------- -------- -------- -------- --------
  -3.000  -0.3403   0.00556   0.00070   0.0007   0.5821   0.1275  58.7060 230.1087
  -2.000  -0.2272   0.00532   0.00055   0.0005   0.5018   0.1910  69.3106 239.4893
  -1.000  -0.1137   0.00517   0.00045   0.0003   0.4225   0.2650  79.8552 249.8528
   0.000  -0.0000   0.00511   0.00042   0.0000   0.3436   0.3436  90.4476 260.5521
   1.000   0.1137   0.00517   0.00045  -0.0003   0.2650   0.4225 101.1449 271.1458
   2.000   0.2272   0.00532   0.00055  -0.0005   0.1910   0.5018 111.5110 281.6874
   3.000   0.3403   0.00556   0.00070  -0.0007   0.1275   0.5821 120.8918 292.2960
   4.000   0.4532   0.00584   0.00091  -0.0008   0.0819   0.6647 128.5831 303.1757
   5.000   0.5655   0.00614   0.00117  -0.0009   0.0531   0.7487 134.9670 314.2147
